data_image0
_chemical_formula_structural       Ni4La6O14
_chemical_formula_sum              "Ni4 La6 O14"
_cell_length_a       5.3659
_cell_length_b       5.43033
_cell_length_c       28.4734
_cell_angle_alpha    90
_cell_angle_beta     90
_cell_angle_gamma    90

_space_group_name_H-M_alt    "P 1"
_space_group_IT_number       1

loop_
  _space_group_symop_operation_xyz
  'x, y, z'

loop_
  _atom_site_type_symbol
  _atom_site_label
  _atom_site_symmetry_multiplicity
  _atom_site_fract_x
  _atom_site_fract_y
  _atom_site_fract_z
  _atom_site_occupancy
  Ni  Ni1       1.0  0.25000  0.74693  0.43161  1.0000
  Ni  Ni2       1.0  0.75000  0.25307  0.56839  1.0000
  Ni  Ni3       1.0  0.25000  0.74693  0.56839  1.0000
  Ni  Ni4       1.0  0.75000  0.25307  0.43161  1.0000
  La  La1       1.0  0.75000  0.76003  0.37022  1.0000
  La  La2       1.0  0.25000  0.23997  0.62978  1.0000
  La  La3       1.0  0.75000  0.76003  0.62978  1.0000
  La  La4       1.0  0.25000  0.23997  0.37022  1.0000
  La  La5       1.0  0.25000  0.24716  0.50000  1.0000
  La  La6       1.0  0.75000  0.75284  0.50000  1.0000
  O   O1        1.0  0.00000  0.00000  0.43601  1.0000
  O   O2        1.0  0.00000  0.00000  0.56399  1.0000
  O   O3        1.0  0.50000  0.00000  0.56399  1.0000
  O   O4        1.0  0.50000  0.00000  0.43601  1.0000
  O   O5        1.0  0.25000  0.71142  0.50000  1.0000
  O   O6        1.0  0.75000  0.28858  0.50000  1.0000
  O   O7        1.0  0.50000  0.50000  0.42523  1.0000
  O   O8        1.0  0.50000  0.50000  0.57477  1.0000
  O   O9        1.0  0.00000  0.50000  0.57477  1.0000
  O   O10       1.0  0.00000  0.50000  0.42523  1.0000
  O   O11       1.0  0.25000  0.78906  0.35121  1.0000
  O   O12       1.0  0.75000  0.21094  0.64879  1.0000
  O   O13       1.0  0.25000  0.78906  0.64879  1.0000
  O   O14       1.0  0.75000  0.21094  0.35121  1.0000
